
 OpenBabel07312608303D

 92 96  0  0  1  0  0  0  0  0999 V2000
   -0.1949    5.8266   -0.2686 C   0  0  0  0  0  0  0  0  0  0  0  0
   -1.0319    4.6899   -0.8756 C   0  0  0  0  0  0  0  0  0  0  0  0
   -2.3263    4.5090   -0.0584 C   0  0  0  0  0  0  0  0  0  0  0  0
   -1.4353    5.0997   -2.3056 C   0  0  0  0  0  0  0  0  0  0  0  0
   -0.2535    3.4344   -0.9498 N   0  0  0  0  0  0  0  0  0  0  0  0
    0.4144    2.8349    0.1061 C   0  0  0  0  0  0  0  0  0  0  0  0
    0.4573    3.3121    1.2358 O   0  0  0  0  0  0  0  0  0  0  0  0
    0.9851    1.4410   -0.2235 C   0  0  2  0  0  0  0  0  0  0  0  0
    1.5185    0.7076    1.0369 C   0  0  0  0  0  0  0  0  0  0  0  0
    1.8282   -0.7298    0.7960 N   0  0  0  0  0  0  0  0  0  0  0  0
    2.7236   -0.8342   -0.3758 C   0  0  0  0  0  0  0  0  0  0  0  0
    2.2183   -0.0571   -1.6241 C   0  0  0  0  0  0  0  0  0  0  0  0
    1.9444    1.3977   -1.3976 N   0  0  0  0  0  0  0  0  0  0  0  0
    3.2230    2.1368   -1.1273 C   0  0  0  0  0  0  0  0  0  0  0  0
    4.1998    2.0624   -2.3377 C   0  0  2  0  0  0  0  0  0  0  0  0
    5.5528    2.7651   -2.1710 C   0  0  0  0  0  0  0  0  0  0  0  0
    6.4666    2.2790   -1.0218 C   0  0  1  0  0  0  0  0  0  0  0  0
    6.8091    0.7526   -1.0585 C   0  0  0  0  0  0  0  0  0  0  0  0
    7.6261    0.3226   -2.2656 C   0  0  0  0  0  0  0  0  0  0  0  0
    9.0298    0.3438   -2.2288 C   0  0  0  0  0  0  0  0  0  0  0  0
    9.7820    0.1754   -3.3927 C   0  0  0  0  0  0  0  0  0  0  0  0
    9.1384   -0.0378   -4.6074 C   0  0  0  0  0  0  0  0  0  0  0  0
    7.7526   -0.1646   -4.6399 C   0  0  0  0  0  0  0  0  0  0  0  0
    7.0039   -0.0084   -3.4727 C   0  0  0  0  0  0  0  0  0  0  0  0
    7.7825    3.0691   -0.9110 C   0  0  0  0  0  0  0  0  0  0  0  0
    8.7817    2.5926   -0.3733 O   0  0  0  0  0  0  0  0  0  0  0  0
    7.7910    4.3625   -1.3694 N   0  0  0  0  0  0  0  0  0  0  0  0
    9.0361    5.0968   -1.4027 C   0  0  2  0  0  0  0  0  0  0  0  0
    9.7093    5.2889    0.0012 C   0  0  1  0  0  0  0  0  0  0  0  0
   10.6358    6.4903   -0.2044 C   0  0  0  0  0  0  0  0  0  0  0  0
    9.7133    7.3470   -1.0241 C   0  0  0  0  0  0  0  0  0  0  0  0
    9.5492    8.7162   -0.9687 C   0  0  0  0  0  0  0  0  0  0  0  0
    8.5827    9.2896   -1.7924 C   0  0  0  0  0  0  0  0  0  0  0  0
    7.8537    8.5022   -2.7003 C   0  0  0  0  0  0  0  0  0  0  0  0
    7.9982    7.1127   -2.7205 C   0  0  0  0  0  0  0  0  0  0  0  0
    8.8730    6.5418   -1.8121 C   0  0  0  0  0  0  0  0  0  0  0  0
    8.7533    5.6051    1.0409 O   0  0  0  0  0  0  0  0  0  0  0  0
    3.5442    2.6413   -3.4745 O   0  0  0  0  0  0  0  0  0  0  0  0
    0.6258   -1.5605    0.5776 C   0  0  0  0  0  0  0  0  0  0  0  0
   -0.3940   -1.4676    1.6761 C   0  0  0  0  0  0  0  0  0  0  0  0
   -0.1258   -1.9557    2.9490 C   0  0  0  0  0  0  0  0  0  0  0  0
   -0.9885   -1.8645    3.9851 N   0  0  0  0  0  0  0  0  0  0  0  0
   -2.1625   -1.2390    3.7541 C   0  0  0  0  0  0  0  0  0  0  0  0
   -2.5187   -0.7105    2.5264 C   0  0  0  0  0  0  0  0  0  0  0  0
   -1.6261   -0.8359    1.4685 C   0  0  0  0  0  0  0  0  0  0  0  0
   -0.7252    6.7839   -0.3234 H   0  0  0  0  0  0  0  0  0  0  0  0
    0.7578    5.9354   -0.7972 H   0  0  0  0  0  0  0  0  0  0  0  0
    0.0296    5.6513    0.7880 H   0  0  0  0  0  0  0  0  0  0  0  0
   -2.9011    5.4443   -0.0165 H   0  0  0  0  0  0  0  0  0  0  0  0
   -2.1219    4.2018    0.9718 H   0  0  0  0  0  0  0  0  0  0  0  0
   -2.9759    3.7463   -0.5042 H   0  0  0  0  0  0  0  0  0  0  0  0
   -1.8984    6.0936   -2.3214 H   0  0  0  0  0  0  0  0  0  0  0  0
   -2.1553    4.3931   -2.7350 H   0  0  0  0  0  0  0  0  0  0  0  0
   -0.5647    5.1234   -2.9699 H   0  0  0  0  0  0  0  0  0  0  0  0
   -0.1869    2.9615   -1.8441 H   0  0  0  0  0  0  0  0  0  0  0  0
    0.0867    0.9017   -0.5555 H   0  0  0  0  0  0  0  0  0  0  0  0
    0.8254    0.8182    1.8770 H   0  0  0  0  0  0  0  0  0  0  0  0
    2.4336    1.1963    1.3979 H   0  0  0  0  0  0  0  0  0  0  0  0
    2.8827   -1.8874   -0.6383 H   0  0  0  0  0  0  0  0  0  0  0  0
    3.7140   -0.4632   -0.0848 H   0  0  0  0  0  0  0  0  0  0  0  0
    1.2893   -0.5129   -1.9867 H   0  0  0  0  0  0  0  0  0  0  0  0
    2.9070   -0.2191   -2.4562 H   0  0  0  0  0  0  0  0  0  0  0  0
    3.7304    1.7716   -0.2313 H   0  0  0  0  0  0  0  0  0  0  0  0
    2.9731    3.1918   -0.9626 H   0  0  0  0  0  0  0  0  0  0  0  0
    4.4070    1.0271   -2.5954 H   0  0  0  0  0  0  0  0  0  0  0  0
    6.1011    2.6952   -3.1217 H   0  0  0  0  0  0  0  0  0  0  0  0
    5.3405    3.8339   -2.0641 H   0  0  0  0  0  0  0  0  0  0  0  0
    5.9410    2.4689   -0.0756 H   0  0  0  0  0  0  0  0  0  0  0  0
    5.8915    0.1551   -1.0122 H   0  0  0  0  0  0  0  0  0  0  0  0
    7.3642    0.4782   -0.1492 H   0  0  0  0  0  0  0  0  0  0  0  0
    9.5553    0.5405   -1.2946 H   0  0  0  0  0  0  0  0  0  0  0  0
   10.8654    0.2668   -3.3543 H   0  0  0  0  0  0  0  0  0  0  0  0
    9.7145   -0.1076   -5.5243 H   0  0  0  0  0  0  0  0  0  0  0  0
    7.2470   -0.3558   -5.5815 H   0  0  0  0  0  0  0  0  0  0  0  0
    5.9266   -0.1080   -3.5346 H   0  0  0  0  0  0  0  0  0  0  0  0
    6.9310    4.8704   -1.5040 H   0  0  0  0  0  0  0  0  0  0  0  0
    9.7281    4.5934   -2.0907 H   0  0  0  0  0  0  0  0  0  0  0  0
   10.2574    4.4045    0.3348 H   0  0  0  0  0  0  0  0  0  0  0  0
   11.5116    6.2110   -0.8054 H   0  0  0  0  0  0  0  0  0  0  0  0
   10.9439    6.9649    0.7277 H   0  0  0  0  0  0  0  0  0  0  0  0
   10.1093    9.3184   -0.2602 H   0  0  0  0  0  0  0  0  0  0  0  0
    8.3856   10.3564   -1.7268 H   0  0  0  0  0  0  0  0  0  0  0  0
    7.1400    8.9793   -3.3674 H   0  0  0  0  0  0  0  0  0  0  0  0
    7.4048    6.5053   -3.3971 H   0  0  0  0  0  0  0  0  0  0  0  0
    8.3704    6.4766    0.8321 H   0  0  0  0  0  0  0  0  0  0  0  0
    2.6061    2.3795   -3.3933 H   0  0  0  0  0  0  0  0  0  0  0  0
    0.9294   -2.6127    0.4973 H   0  0  0  0  0  0  0  0  0  0  0  0
    0.1353   -1.3277   -0.3739 H   0  0  0  0  0  0  0  0  0  0  0  0
    0.8220   -2.4341    3.1789 H   0  0  0  0  0  0  0  0  0  0  0  0
   -2.8209   -1.1496    4.6051 H   0  0  0  0  0  0  0  0  0  0  0  0
   -3.4731   -0.2166    2.3857 H   0  0  0  0  0  0  0  0  0  0  0  0
   -1.8867   -0.4317    0.4941 H   0  0  0  0  0  0  0  0  0  0  0  0
  1  2  1  0  0  0  0
  1 46  1  0  0  0  0
  1 47  1  0  0  0  0
  1 48  1  0  0  0  0
  2  3  1  0  0  0  0
  2  4  1  0  0  0  0
  2  5  1  0  0  0  0
  3 49  1  0  0  0  0
  3 50  1  0  0  0  0
  3 51  1  0  0  0  0
  4 52  1  0  0  0  0
  4 53  1  0  0  0  0
  4 54  1  0  0  0  0
  5  6  1  0  0  0  0
  5 55  1  0  0  0  0
  6  7  2  0  0  0  0
  6  8  1  0  0  0  0
  8  9  1  0  0  0  0
  8 13  1  0  0  0  0
  8 56  1  6  0  0  0
  9 10  1  0  0  0  0
  9 57  1  0  0  0  0
  9 58  1  0  0  0  0
 10 11  1  0  0  0  0
 10 39  1  0  0  0  0
 11 12  1  0  0  0  0
 11 59  1  0  0  0  0
 11 60  1  0  0  0  0
 12 13  1  0  0  0  0
 12 61  1  0  0  0  0
 12 62  1  0  0  0  0
 13 14  1  0  0  0  0
 14 63  1  0  0  0  0
 14 64  1  0  0  0  0
 15 38  1  0  0  0  0
 15 16  1  0  0  0  0
 15 14  1  0  0  0  0
 15 65  1  6  0  0  0
 16 17  1  0  0  0  0
 16 66  1  0  0  0  0
 16 67  1  0  0  0  0
 17 18  1  0  0  0  0
 17 25  1  0  0  0  0
 17 68  1  1  0  0  0
 18 19  1  0  0  0  0
 18 69  1  0  0  0  0
 18 70  1  0  0  0  0
 19 20  2  0  0  0  0
 19 24  1  0  0  0  0
 20 21  1  0  0  0  0
 20 71  1  0  0  0  0
 21 22  2  0  0  0  0
 21 72  1  0  0  0  0
 22 23  1  0  0  0  0
 22 73  1  0  0  0  0
 23 24  2  0  0  0  0
 23 74  1  0  0  0  0
 24 75  1  0  0  0  0
 25 26  2  0  0  0  0
 25 27  1  0  0  0  0
 27 28  1  0  0  0  0
 27 76  1  0  0  0  0
 28 29  1  0  0  0  0
 28 36  1  0  0  0  0
 28 77  1  6  0  0  0
 29 30  1  0  0  0  0
 29 37  1  0  0  0  0
 29 78  1  1  0  0  0
 30 31  1  0  0  0  0
 30 79  1  0  0  0  0
 30 80  1  0  0  0  0
 31 32  2  0  0  0  0
 31 36  1  0  0  0  0
 32 33  1  0  0  0  0
 32 81  1  0  0  0  0
 33 34  2  0  0  0  0
 33 82  1  0  0  0  0
 34 35  1  0  0  0  0
 34 83  1  0  0  0  0
 35 36  2  0  0  0  0
 35 84  1  0  0  0  0
 37 85  1  0  0  0  0
 38 86  1  0  0  0  0
 39 40  1  0  0  0  0
 39 87  1  0  0  0  0
 39 88  1  0  0  0  0
 40 41  2  0  0  0  0
 40 45  1  0  0  0  0
 41 42  1  0  0  0  0
 41 89  1  0  0  0  0
 42 43  2  0  0  0  0
 43 44  1  0  0  0  0
 43 90  1  0  0  0  0
 44 45  2  0  0  0  0
 44 91  1  0  0  0  0
 45 92  1  0  0  0  0
M  END
$$$$
