
     RDKit          3D

 98101  0  0  0  0  0  0  0  0999 V2000
   -9.5998   -2.7222   -2.5607 C   0  0  0  0  0  0  0  0  0  0  0  0
   -8.6027   -1.6096   -2.2383 C   0  0  0  0  0  0  0  0  0  0  0  0
   -8.6430   -0.5036   -3.2925 C   0  0  0  0  0  0  0  0  0  0  0  0
   -7.2052   -2.1406   -2.0276 C   0  0  0  0  0  0  0  0  0  0  0  0
   -6.5576   -2.0294   -0.8859 N   0  0  0  0  0  0  0  0  0  0  0  0
   -5.2875   -2.5834   -0.9845 C   0  0  0  0  0  0  0  0  0  0  0  0
   -5.0079   -3.1459   -2.2162 C   0  0  0  0  0  0  0  0  0  0  0  0
   -6.3340   -2.9429   -3.2776 S   0  0  0  0  0  0  0  0  0  0  0  0
   -4.3697   -2.5477    0.2014 C   0  0  0  0  0  0  0  0  0  0  0  0
   -4.1430   -1.1698    0.6402 N   0  0  0  0  0  0  0  0  0  0  0  0
   -4.9641   -0.7031    1.7441 C   0  0  0  0  0  0  0  0  0  0  0  0
   -3.0915   -0.3805    0.2193 C   0  0  0  0  0  0  0  0  0  0  0  0
   -2.7269    0.6251    0.8246 O   0  0  0  0  0  0  0  0  0  0  0  0
   -2.4674   -0.8161   -0.9195 N   0  0  0  0  0  0  0  0  0  0  0  0
   -1.3635   -0.0901   -1.5660 C   0  0  1  0  0  0  0  0  0  0  0  0
   -1.7114    1.3592   -1.9916 C   0  0  0  0  0  0  0  0  0  0  0  0
   -0.5456    2.0101   -2.7454 C   0  0  0  0  0  0  0  0  0  0  0  0
   -2.9611    1.3949   -2.8802 C   0  0  0  0  0  0  0  0  0  0  0  0
   -0.0780   -0.2071   -0.7147 C   0  0  0  0  0  0  0  0  0  0  0  0
    0.8390   -0.9670   -1.0238 O   0  0  0  0  0  0  0  0  0  0  0  0
   -0.0564    0.5733    0.4159 N   0  0  0  0  0  0  0  0  0  0  0  0
    1.0879    0.6380    1.3245 C   0  0  1  0  0  0  0  0  0  0  0  0
    1.1019    1.9963    2.0591 C   0  0  0  0  0  0  0  0  0  0  0  0
    1.0097    3.1963    1.1391 C   0  0  0  0  0  0  0  0  0  0  0  0
    2.1241    3.6163    0.4015 C   0  0  0  0  0  0  0  0  0  0  0  0
    2.0328    4.7197   -0.4483 C   0  0  0  0  0  0  0  0  0  0  0  0
    0.8273    5.4068   -0.5768 C   0  0  0  0  0  0  0  0  0  0  0  0
   -0.2891    4.9926    0.1464 C   0  0  0  0  0  0  0  0  0  0  0  0
   -0.1989    3.8937    1.0017 C   0  0  0  0  0  0  0  0  0  0  0  0
    1.0314   -0.5729    2.2809 C   0  0  0  0  0  0  0  0  0  0  0  0
    2.1986   -0.8151    3.2542 C   0  0  1  0  0  0  0  0  0  0  0  0
    3.5490   -1.1982    2.5879 C   0  0  2  0  0  0  0  0  0  0  0  0
    4.5522   -1.6766    3.6678 C   0  0  0  0  0  0  0  0  0  0  0  0
    5.8594   -2.2158    3.1340 C   0  0  0  0  0  0  0  0  0  0  0  0
    7.0568   -1.5196    3.3526 C   0  0  0  0  0  0  0  0  0  0  0  0
    8.2656   -2.0165    2.8623 C   0  0  0  0  0  0  0  0  0  0  0  0
    8.2904   -3.2129    2.1491 C   0  0  0  0  0  0  0  0  0  0  0  0
    7.1068   -3.9130    1.9258 C   0  0  0  0  0  0  0  0  0  0  0  0
    5.8972   -3.4192    2.4172 C   0  0  0  0  0  0  0  0  0  0  0  0
    4.1078   -0.0780    1.8437 N   0  0  0  0  0  0  0  0  0  0  0  0
    4.6709   -0.2204    0.6118 C   0  0  0  0  0  0  0  0  0  0  0  0
    4.7392   -1.2639   -0.0178 O   0  0  0  0  0  0  0  0  0  0  0  0
    5.1206    0.9835    0.1875 O   0  0  0  0  0  0  0  0  0  0  0  0
    5.7231    0.9802   -1.1131 C   0  0  0  0  0  0  0  0  0  0  0  0
    4.7212    1.5081   -2.0821 C   0  0  0  0  0  0  0  0  0  0  0  0
    3.5629    0.9170   -2.5524 C   0  0  0  0  0  0  0  0  0  0  0  0
    2.8523    1.6482   -3.4875 N   0  0  0  0  0  0  0  0  0  0  0  0
    3.4613    2.7932   -3.6935 C   0  0  0  0  0  0  0  0  0  0  0  0
    4.9147    3.0456   -2.8211 S   0  0  0  0  0  0  0  0  0  0  0  0
    2.3523    0.3035    4.1298 O   0  0  0  0  0  0  0  0  0  0  0  0
   -9.5699   -3.5093   -1.7991 H   0  0  0  0  0  0  0  0  0  0  0  0
  -10.6205   -2.3259   -2.5933 H   0  0  0  0  0  0  0  0  0  0  0  0
   -9.3944   -3.1876   -3.5309 H   0  0  0  0  0  0  0  0  0  0  0  0
   -8.9194   -1.1595   -1.2872 H   0  0  0  0  0  0  0  0  0  0  0  0
   -8.3970   -0.8808   -4.2911 H   0  0  0  0  0  0  0  0  0  0  0  0
   -7.9315    0.2943   -3.0519 H   0  0  0  0  0  0  0  0  0  0  0  0
   -9.6422   -0.0574   -3.3438 H   0  0  0  0  0  0  0  0  0  0  0  0
   -4.1072   -3.6493   -2.5386 H   0  0  0  0  0  0  0  0  0  0  0  0
   -3.4083   -3.0136   -0.0434 H   0  0  0  0  0  0  0  0  0  0  0  0
   -4.8055   -3.1227    1.0266 H   0  0  0  0  0  0  0  0  0  0  0  0
   -4.8609    0.3750    1.8957 H   0  0  0  0  0  0  0  0  0  0  0  0
   -6.0153   -0.9262    1.5421 H   0  0  0  0  0  0  0  0  0  0  0  0
   -4.6493   -1.2204    2.6553 H   0  0  0  0  0  0  0  0  0  0  0  0
   -3.1034   -1.2382   -1.5760 H   0  0  0  0  0  0  0  0  0  0  0  0
   -1.1577   -0.6652   -2.4798 H   0  0  0  0  0  0  0  0  0  0  0  0
   -1.9149    1.9785   -1.1110 H   0  0  0  0  0  0  0  0  0  0  0  0
   -0.8092    3.0226   -3.0698 H   0  0  0  0  0  0  0  0  0  0  0  0
    0.3404    2.0951   -2.1096 H   0  0  0  0  0  0  0  0  0  0  0  0
   -0.2744    1.4306   -3.6342 H   0  0  0  0  0  0  0  0  0  0  0  0
   -2.8296    0.7760   -3.7743 H   0  0  0  0  0  0  0  0  0  0  0  0
   -3.8441    1.0343   -2.3433 H   0  0  0  0  0  0  0  0  0  0  0  0
   -3.1758    2.4182   -3.2068 H   0  0  0  0  0  0  0  0  0  0  0  0
   -0.9582    0.9293    0.7392 H   0  0  0  0  0  0  0  0  0  0  0  0
    1.9728    0.5640    0.6876 H   0  0  0  0  0  0  0  0  0  0  0  0
    0.2766    2.0356    2.7822 H   0  0  0  0  0  0  0  0  0  0  0  0
    2.0229    2.1122    2.6393 H   0  0  0  0  0  0  0  0  0  0  0  0
    3.0680    3.0824    0.4794 H   0  0  0  0  0  0  0  0  0  0  0  0
    2.9027    5.0397   -1.0140 H   0  0  0  0  0  0  0  0  0  0  0  0
    0.7567    6.2618   -1.2431 H   0  0  0  0  0  0  0  0  0  0  0  0
   -1.2323    5.5218    0.0431 H   0  0  0  0  0  0  0  0  0  0  0  0
   -1.0820    3.5765    1.5525 H   0  0  0  0  0  0  0  0  0  0  0  0
    0.8965   -1.4895    1.6915 H   0  0  0  0  0  0  0  0  0  0  0  0
    0.1157   -0.4710    2.8811 H   0  0  0  0  0  0  0  0  0  0  0  0
    1.8874   -1.6596    3.8841 H   0  0  0  0  0  0  0  0  0  0  0  0
    3.3597   -2.0235    1.8904 H   0  0  0  0  0  0  0  0  0  0  0  0
    4.7659   -0.8535    4.3623 H   0  0  0  0  0  0  0  0  0  0  0  0
    4.0918   -2.4677    4.2744 H   0  0  0  0  0  0  0  0  0  0  0  0
    7.0573   -0.5813    3.9019 H   0  0  0  0  0  0  0  0  0  0  0  0
    9.1878   -1.4680    3.0338 H   0  0  0  0  0  0  0  0  0  0  0  0
    9.2300   -3.5973    1.7620 H   0  0  0  0  0  0  0  0  0  0  0  0
    7.1224   -4.8409    1.3602 H   0  0  0  0  0  0  0  0  0  0  0  0
    4.9833   -3.9749    2.2213 H   0  0  0  0  0  0  0  0  0  0  0  0
    4.1507    0.8372    2.2708 H   0  0  0  0  0  0  0  0  0  0  0  0
    6.0848   -0.0079   -1.4207 H   0  0  0  0  0  0  0  0  0  0  0  0
    6.6049    1.6279   -1.0559 H   0  0  0  0  0  0  0  0  0  0  0  0
    3.1894   -0.0562   -2.2483 H   0  0  0  0  0  0  0  0  0  0  0  0
    3.0743    3.5363   -4.3778 H   0  0  0  0  0  0  0  0  0  0  0  0
    2.7083   -0.0221    4.9749 H   0  0  0  0  0  0  0  0  0  0  0  0
  1  2  1  0
  2  3  1  0
  2  4  1  0
  4  5  2  0
  5  6  1  0
  6  7  2  0
  7  8  1  0
  6  9  1  0
  9 10  1  0
 10 11  1  0
 10 12  1  0
 12 13  2  0
 12 14  1  0
 14 15  1  0
 15 16  1  0
 16 17  1  0
 16 18  1  0
 15 19  1  0
 19 20  2  0
 19 21  1  0
 21 22  1  0
 22 23  1  0
 23 24  1  0
 24 25  2  0
 25 26  1  0
 26 27  2  0
 27 28  1  0
 28 29  2  0
 22 30  1  0
 30 31  1  0
 31 32  1  0
 32 33  1  0
 33 34  1  0
 34 35  2  0
 35 36  1  0
 36 37  2  0
 37 38  1  0
 38 39  2  0
 32 40  1  0
 40 41  1  0
 41 42  2  0
 41 43  1  0
 43 44  1  0
 44 45  1  0
 45 46  2  0
 46 47  1  0
 47 48  2  0
 48 49  1  0
 31 50  1  0
  8  4  1  0
 29 24  1  0
 39 34  1  0
 49 45  1  0
  1 51  1  0
  1 52  1  0
  1 53  1  0
  2 54  1  0
  3 55  1  0
  3 56  1  0
  3 57  1  0
  7 58  1  0
  9 59  1  0
  9 60  1  0
 11 61  1  0
 11 62  1  0
 11 63  1  0
 14 64  1  0
 15 65  1  6
 16 66  1  0
 17 67  1  0
 17 68  1  0
 17 69  1  0
 18 70  1  0
 18 71  1  0
 18 72  1  0
 21 73  1  0
 22 74  1  6
 23 75  1  0
 23 76  1  0
 25 77  1  0
 26 78  1  0
 27 79  1  0
 28 80  1  0
 29 81  1  0
 30 82  1  0
 30 83  1  0
 31 84  1  1
 32 85  1  6
 33 86  1  0
 33 87  1  0
 35 88  1  0
 36 89  1  0
 37 90  1  0
 38 91  1  0
 39 92  1  0
 40 93  1  0
 44 94  1  0
 44 95  1  0
 46 96  1  0
 48 97  1  0
 50 98  1  0
M  END
