
 OpenBabel07312608303D

 98101  0  0  1  0  0  0  0  0999 V2000
    9.4895  -15.7481    7.0127 C   0  0  0  0  0  0  0  0  0  0  0  0
    9.3587  -16.0955    5.5296 C   0  0  0  0  0  0  0  0  0  0  0  0
    7.8954  -16.3154    5.1525 C   0  0  0  0  0  0  0  0  0  0  0  0
    9.9787  -15.0158    4.6680 C   0  0  0  0  0  0  0  0  0  0  0  0
    9.6068  -13.7525    4.6581 N   0  0  0  0  0  0  0  0  0  0  0  0
   10.3460  -13.0333    3.7036 C   0  0  0  0  0  0  0  0  0  0  0  0
   11.2803  -13.7850    3.0321 C   0  0  0  0  0  0  0  0  0  0  0  0
   11.2510  -15.4108    3.5755 S   0  0  0  0  0  0  0  0  0  0  0  0
    9.9766  -11.5985    3.4232 C   0  0  0  0  0  0  0  0  0  0  0  0
   10.8347  -10.6298    4.1136 N   0  0  0  0  0  0  0  0  0  0  0  0
   10.7021  -10.5451    5.5632 C   0  0  0  0  0  0  0  0  0  0  0  0
   11.5848   -9.7454    3.3475 C   0  0  0  0  0  0  0  0  0  0  0  0
   11.7583   -9.8862    2.1391 O   0  0  0  0  0  0  0  0  0  0  0  0
   12.1156   -8.6858    4.0258 N   0  0  0  0  0  0  0  0  0  0  0  0
   12.9188   -7.5984    3.4414 C   0  0  1  0  0  0  0  0  0  0  0  0
   12.1802   -6.7515    2.3709 C   0  0  0  0  0  0  0  0  0  0  0  0
   10.9577   -6.0116    2.9317 C   0  0  0  0  0  0  0  0  0  0  0  0
   13.1216   -5.7437    1.6960 C   0  0  0  0  0  0  0  0  0  0  0  0
   13.2709   -6.7064    4.6466 C   0  0  0  0  0  0  0  0  0  0  0  0
   12.4817   -6.6232    5.5985 O   0  0  0  0  0  0  0  0  0  0  0  0
   14.4559   -6.0087    4.5853 N   0  0  0  0  0  0  0  0  0  0  0  0
   14.8315   -4.9364    5.5208 C   0  0  1  0  0  0  0  0  0  0  0  0
   14.1753   -3.5705    5.1735 C   0  0  0  0  0  0  0  0  0  0  0  0
   14.5260   -2.8132    3.9001 C   0  0  0  0  0  0  0  0  0  0  0  0
   13.6361   -1.8009    3.4928 C   0  0  0  0  0  0  0  0  0  0  0  0
   13.9268   -0.9570    2.4148 C   0  0  0  0  0  0  0  0  0  0  0  0
   15.1181   -1.1072    1.7222 C   0  0  0  0  0  0  0  0  0  0  0  0
   16.0093   -2.1129    2.0975 C   0  0  0  0  0  0  0  0  0  0  0  0
   15.7198   -2.9569    3.1823 C   0  0  0  0  0  0  0  0  0  0  0  0
   14.5168   -5.2923    7.0023 C   0  0  0  0  0  0  0  0  0  0  0  0
   15.0705   -6.6443    7.4980 C   0  0  1  0  0  0  0  0  0  0  0  0
   16.5733   -6.9555    7.2190 C   0  0  2  0  0  0  0  0  0  0  0  0
   16.8377   -8.4868    7.2977 C   0  0  0  0  0  0  0  0  0  0  0  0
   17.0901   -9.1814    8.6195 C   0  0  0  0  0  0  0  0  0  0  0  0
   16.0351   -9.7666    9.3338 C   0  0  0  0  0  0  0  0  0  0  0  0
   16.2927  -10.6493   10.3872 C   0  0  0  0  0  0  0  0  0  0  0  0
   17.6051  -10.9298   10.7606 C   0  0  0  0  0  0  0  0  0  0  0  0
   18.6591  -10.2865   10.1170 C   0  0  0  0  0  0  0  0  0  0  0  0
   18.4040   -9.4145    9.0555 C   0  0  0  0  0  0  0  0  0  0  0  0
   17.5806   -6.2013    7.9763 N   0  0  0  0  0  0  0  0  0  0  0  0
   17.7532   -4.8514    7.9795 C   0  0  0  0  0  0  0  0  0  0  0  0
   17.0199   -4.0288    7.4474 O   0  0  0  0  0  0  0  0  0  0  0  0
   18.9225   -4.5395    8.5882 O   0  0  0  0  0  0  0  0  0  0  0  0
   19.3337   -3.1682    8.4447 C   0  0  0  0  0  0  0  0  0  0  0  0
   18.8409   -2.3545    9.5912 C   0  0  0  0  0  0  0  0  0  0  0  0
   17.8711   -1.3689    9.6005 C   0  0  0  0  0  0  0  0  0  0  0  0
   17.7059   -0.6941   10.7951 N   0  0  0  0  0  0  0  0  0  0  0  0
   18.5375   -1.1859   11.6863 C   0  0  0  0  0  0  0  0  0  0  0  0
   19.5389   -2.4744   11.1558 S   0  0  0  0  0  0  0  0  0  0  0  0
   14.7505   -6.8430    8.8772 O   0  0  0  0  0  0  0  0  0  0  0  0
    9.0557  -16.5375    7.6371 H   0  0  0  0  0  0  0  0  0  0  0  0
    8.9776  -14.8093    7.2532 H   0  0  0  0  0  0  0  0  0  0  0  0
   10.5407  -15.6353    7.2981 H   0  0  0  0  0  0  0  0  0  0  0  0
    9.8892  -17.0485    5.3707 H   0  0  0  0  0  0  0  0  0  0  0  0
    7.3086  -15.3966    5.2603 H   0  0  0  0  0  0  0  0  0  0  0  0
    7.4394  -17.0828    5.7876 H   0  0  0  0  0  0  0  0  0  0  0  0
    7.8057  -16.6478    4.1123 H   0  0  0  0  0  0  0  0  0  0  0  0
   11.9359  -13.4717    2.2379 H   0  0  0  0  0  0  0  0  0  0  0  0
    8.9427  -11.4067    3.7379 H   0  0  0  0  0  0  0  0  0  0  0  0
   10.0048  -11.4389    2.3392 H   0  0  0  0  0  0  0  0  0  0  0  0
   10.0553  -11.3343    5.9542 H   0  0  0  0  0  0  0  0  0  0  0  0
   10.2677   -9.5773    5.8348 H   0  0  0  0  0  0  0  0  0  0  0  0
   11.6950  -10.6327    6.0143 H   0  0  0  0  0  0  0  0  0  0  0  0
   11.7631   -8.4811    4.9521 H   0  0  0  0  0  0  0  0  0  0  0  0
   13.8265   -8.0515    3.0281 H   0  0  0  0  0  0  0  0  0  0  0  0
   11.8207   -7.4171    1.5815 H   0  0  0  0  0  0  0  0  0  0  0  0
   11.2184   -5.3443    3.7600 H   0  0  0  0  0  0  0  0  0  0  0  0
   10.2046   -6.7205    3.2894 H   0  0  0  0  0  0  0  0  0  0  0  0
   10.4927   -5.3885    2.1609 H   0  0  0  0  0  0  0  0  0  0  0  0
   13.5287   -5.0247    2.4084 H   0  0  0  0  0  0  0  0  0  0  0  0
   12.5926   -5.1614    0.9353 H   0  0  0  0  0  0  0  0  0  0  0  0
   13.9597   -6.2540    1.2114 H   0  0  0  0  0  0  0  0  0  0  0  0
   15.0245   -6.1067    3.7505 H   0  0  0  0  0  0  0  0  0  0  0  0
   15.9139   -4.8275    5.4051 H   0  0  0  0  0  0  0  0  0  0  0  0
   14.4168   -2.8715    5.9886 H   0  0  0  0  0  0  0  0  0  0  0  0
   13.0860   -3.7102    5.1872 H   0  0  0  0  0  0  0  0  0  0  0  0
   12.7078   -1.6399    4.0377 H   0  0  0  0  0  0  0  0  0  0  0  0
   13.2260   -0.1717    2.1398 H   0  0  0  0  0  0  0  0  0  0  0  0
   15.3594   -0.4340    0.9003 H   0  0  0  0  0  0  0  0  0  0  0  0
   16.9441   -2.2231    1.5537 H   0  0  0  0  0  0  0  0  0  0  0  0
   16.4575   -3.7022    3.4605 H   0  0  0  0  0  0  0  0  0  0  0  0
   13.4297   -5.2956    7.1601 H   0  0  0  0  0  0  0  0  0  0  0  0
   14.8240   -4.4849    7.6730 H   0  0  0  0  0  0  0  0  0  0  0  0
   14.4964   -7.4150    6.9717 H   0  0  0  0  0  0  0  0  0  0  0  0
   16.7595   -6.7003    6.1692 H   0  0  0  0  0  0  0  0  0  0  0  0
   16.0226   -9.0226    6.7914 H   0  0  0  0  0  0  0  0  0  0  0  0
   17.7140   -8.6956    6.6676 H   0  0  0  0  0  0  0  0  0  0  0  0
   15.0028   -9.5773    9.0460 H   0  0  0  0  0  0  0  0  0  0  0  0
   15.4676  -11.1425   10.8952 H   0  0  0  0  0  0  0  0  0  0  0  0
   17.8059  -11.6542   11.5455 H   0  0  0  0  0  0  0  0  0  0  0  0
   19.6833  -10.4941   10.4158 H   0  0  0  0  0  0  0  0  0  0  0  0
   19.2469   -8.9683    8.5348 H   0  0  0  0  0  0  0  0  0  0  0  0
   18.4222   -6.6952    8.2382 H   0  0  0  0  0  0  0  0  0  0  0  0
   19.0087   -2.7464    7.4850 H   0  0  0  0  0  0  0  0  0  0  0  0
   20.4302   -3.1576    8.4216 H   0  0  0  0  0  0  0  0  0  0  0  0
   17.2695   -1.0774    8.7463 H   0  0  0  0  0  0  0  0  0  0  0  0
   18.5953   -0.7996   12.6959 H   0  0  0  0  0  0  0  0  0  0  0  0
   14.4662   -5.9948    9.2558 H   0  0  0  0  0  0  0  0  0  0  0  0
  1  2  1  0  0  0  0
  1 51  1  0  0  0  0
  1 52  1  0  0  0  0
  1 53  1  0  0  0  0
  2  3  1  0  0  0  0
  2  4  1  0  0  0  0
  2 54  1  0  0  0  0
  3 55  1  0  0  0  0
  3 56  1  0  0  0  0
  3 57  1  0  0  0  0
  4  5  2  0  0  0  0
  4  8  1  0  0  0  0
  5  6  1  0  0  0  0
  6  7  2  0  0  0  0
  6  9  1  0  0  0  0
  7  8  1  0  0  0  0
  7 58  1  0  0  0  0
  9 10  1  0  0  0  0
  9 59  1  0  0  0  0
  9 60  1  0  0  0  0
 10 11  1  0  0  0  0
 10 12  1  0  0  0  0
 11 61  1  0  0  0  0
 11 62  1  0  0  0  0
 11 63  1  0  0  0  0
 12 13  2  0  0  0  0
 12 14  1  0  0  0  0
 14 15  1  0  0  0  0
 14 64  1  0  0  0  0
 15 16  1  0  0  0  0
 15 19  1  0  0  0  0
 15 65  1  6  0  0  0
 16 17  1  0  0  0  0
 16 18  1  0  0  0  0
 16 66  1  0  0  0  0
 17 67  1  0  0  0  0
 17 68  1  0  0  0  0
 17 69  1  0  0  0  0
 18 70  1  0  0  0  0
 18 71  1  0  0  0  0
 18 72  1  0  0  0  0
 19 20  2  0  0  0  0
 19 21  1  0  0  0  0
 21 22  1  0  0  0  0
 21 73  1  0  0  0  0
 22 23  1  0  0  0  0
 22 30  1  0  0  0  0
 22 74  1  6  0  0  0
 23 24  1  0  0  0  0
 23 75  1  0  0  0  0
 23 76  1  0  0  0  0
 24 25  2  0  0  0  0
 24 29  1  0  0  0  0
 25 26  1  0  0  0  0
 25 77  1  0  0  0  0
 26 27  2  0  0  0  0
 26 78  1  0  0  0  0
 27 28  1  0  0  0  0
 27 79  1  0  0  0  0
 28 29  2  0  0  0  0
 28 80  1  0  0  0  0
 29 81  1  0  0  0  0
 30 31  1  0  0  0  0
 30 82  1  0  0  0  0
 30 83  1  0  0  0  0
 31 50  1  0  0  0  0
 31 84  1  6  0  0  0
 32 40  1  0  0  0  0
 32 33  1  0  0  0  0
 32 31  1  0  0  0  0
 32 85  1  6  0  0  0
 33 34  1  0  0  0  0
 33 86  1  0  0  0  0
 33 87  1  0  0  0  0
 34 35  2  0  0  0  0
 34 39  1  0  0  0  0
 35 36  1  0  0  0  0
 35 88  1  0  0  0  0
 36 37  2  0  0  0  0
 36 89  1  0  0  0  0
 37 38  1  0  0  0  0
 37 90  1  0  0  0  0
 38 39  2  0  0  0  0
 38 91  1  0  0  0  0
 39 92  1  0  0  0  0
 40 41  1  0  0  0  0
 40 93  1  0  0  0  0
 41 42  2  0  0  0  0
 41 43  1  0  0  0  0
 43 44  1  0  0  0  0
 44 45  1  0  0  0  0
 44 94  1  0  0  0  0
 44 95  1  0  0  0  0
 45 46  2  0  0  0  0
 45 49  1  0  0  0  0
 46 47  1  0  0  0  0
 46 96  1  0  0  0  0
 47 48  2  0  0  0  0
 48 49  1  0  0  0  0
 48 97  1  0  0  0  0
 50 98  1  0  0  0  0
M  END
$$$$
