
     RDKit          3D

 94 97  0  0  0  0  0  0  0  0999 V2000
    6.0504   -2.8340   -2.1963 C   0  0  0  0  0  0  0  0  0  0  0  0
    7.0737   -1.7358   -2.2540 C   0  0  0  0  0  0  0  0  0  0  0  0
    6.7362   -0.3919   -2.0213 C   0  0  0  0  0  0  0  0  0  0  0  0
    7.7090    0.6201   -2.0447 C   0  0  0  0  0  0  0  0  0  0  0  0
    9.0224    0.2801   -2.3939 C   0  0  0  0  0  0  0  0  0  0  0  0
    9.3621   -1.0435   -2.6732 C   0  0  0  0  0  0  0  0  0  0  0  0
    8.3950   -2.0456   -2.6007 C   0  0  0  0  0  0  0  0  0  0  0  0
    7.3675    2.0520   -1.7495 C   0  0  0  0  0  0  0  0  0  0  0  0
    5.4431   -0.0738   -1.6920 O   0  0  0  0  0  0  0  0  0  0  0  0
    4.6805    0.2117   -2.8711 C   0  0  0  0  0  0  0  0  0  0  0  0
    3.1866    0.0559   -2.5836 C   0  0  0  0  0  0  0  0  0  0  0  0
    2.3328    0.1768   -3.4588 O   0  0  0  0  0  0  0  0  0  0  0  0
    2.8788   -0.2068   -1.2694 N   0  0  0  0  0  0  0  0  0  0  0  0
    1.5419   -0.6130   -0.7835 C   0  0  1  0  0  0  0  0  0  0  0  0
    1.6685   -1.1449    0.6666 C   0  0  0  0  0  0  0  0  0  0  0  0
    2.6301   -2.3064    0.8131 C   0  0  0  0  0  0  0  0  0  0  0  0
    3.8350   -2.1511    1.5129 C   0  0  0  0  0  0  0  0  0  0  0  0
    4.7214   -3.2218    1.6410 C   0  0  0  0  0  0  0  0  0  0  0  0
    4.4107   -4.4574    1.0768 C   0  0  0  0  0  0  0  0  0  0  0  0
    3.2131   -4.6242    0.3843 C   0  0  0  0  0  0  0  0  0  0  0  0
    2.3257   -3.5550    0.2534 C   0  0  0  0  0  0  0  0  0  0  0  0
    0.5224    0.5716   -0.9058 C   0  0  2  0  0  0  0  0  0  0  0  0
   -0.7234    0.4290   -0.0175 C   0  0  0  0  0  0  0  0  0  0  0  0
   -1.8801    1.4089   -0.3274 C   0  0  2  0  0  0  0  0  0  0  0  0
   -1.3916    2.8792   -0.3442 C   0  0  0  0  0  0  0  0  0  0  0  0
   -2.4962    3.8899   -0.5756 C   0  0  0  0  0  0  0  0  0  0  0  0
   -2.8325    4.8176    0.4206 C   0  0  0  0  0  0  0  0  0  0  0  0
   -3.8631    5.7354    0.2126 C   0  0  0  0  0  0  0  0  0  0  0  0
   -4.5626    5.7387   -0.9927 C   0  0  0  0  0  0  0  0  0  0  0  0
   -4.2297    4.8273   -1.9929 C   0  0  0  0  0  0  0  0  0  0  0  0
   -3.1999    3.9085   -1.7873 C   0  0  0  0  0  0  0  0  0  0  0  0
   -2.9595    1.2462    0.6626 N   0  0  0  0  0  0  0  0  0  0  0  0
   -3.7387    0.1036    0.7362 C   0  0  0  0  0  0  0  0  0  0  0  0
   -3.5295   -0.8830    0.0342 O   0  0  0  0  0  0  0  0  0  0  0  0
   -4.9438    0.2220    1.7139 C   0  0  2  0  0  0  0  0  0  0  0  0
   -4.6231    0.6155    3.1899 C   0  0  0  0  0  0  0  0  0  0  0  0
   -4.9725    2.0876    3.4567 C   0  0  0  0  0  0  0  0  0  0  0  0
   -3.1815    0.3557    3.6432 C   0  0  0  0  0  0  0  0  0  0  0  0
   -5.8238   -0.9635    1.5812 N   0  0  0  0  0  0  0  0  0  0  0  0
   -6.9395   -0.8533    0.6450 C   0  0  0  0  0  0  0  0  0  0  0  0
   -7.3860   -2.1887    0.0821 C   0  0  0  0  0  0  0  0  0  0  0  0
   -7.5693   -3.1358    1.2414 C   0  0  0  0  0  0  0  0  0  0  0  0
   -6.3604   -3.1921    2.0144 N   0  0  0  0  0  0  0  0  0  0  0  0
   -5.5258   -2.1396    2.2366 C   0  0  0  0  0  0  0  0  0  0  0  0
   -4.5816   -2.2970    3.0039 O   0  0  0  0  0  0  0  0  0  0  0  0
    0.0624    0.7100   -2.2545 O   0  0  0  0  0  0  0  0  0  0  0  0
    5.2710   -2.6134   -1.4618 H   0  0  0  0  0  0  0  0  0  0  0  0
    6.5112   -3.7815   -1.8972 H   0  0  0  0  0  0  0  0  0  0  0  0
    5.5849   -2.9640   -3.1780 H   0  0  0  0  0  0  0  0  0  0  0  0
    9.7933    1.0459   -2.4455 H   0  0  0  0  0  0  0  0  0  0  0  0
   10.3851   -1.2959   -2.9411 H   0  0  0  0  0  0  0  0  0  0  0  0
    8.6798   -3.0738   -2.8132 H   0  0  0  0  0  0  0  0  0  0  0  0
    8.2555    2.6122   -1.4371 H   0  0  0  0  0  0  0  0  0  0  0  0
    6.6430    2.1228   -0.9317 H   0  0  0  0  0  0  0  0  0  0  0  0
    6.9527    2.5311   -2.6414 H   0  0  0  0  0  0  0  0  0  0  0  0
    4.9254   -0.4712   -3.6937 H   0  0  0  0  0  0  0  0  0  0  0  0
    4.8550    1.2487   -3.1766 H   0  0  0  0  0  0  0  0  0  0  0  0
    3.6858   -0.4791   -0.7109 H   0  0  0  0  0  0  0  0  0  0  0  0
    1.2136   -1.4215   -1.4496 H   0  0  0  0  0  0  0  0  0  0  0  0
    0.6989   -1.4927    1.0413 H   0  0  0  0  0  0  0  0  0  0  0  0
    1.9817   -0.3265    1.3282 H   0  0  0  0  0  0  0  0  0  0  0  0
    4.0945   -1.1963    1.9647 H   0  0  0  0  0  0  0  0  0  0  0  0
    5.6545   -3.0919    2.1833 H   0  0  0  0  0  0  0  0  0  0  0  0
    5.0997   -5.2914    1.1804 H   0  0  0  0  0  0  0  0  0  0  0  0
    2.9660   -5.5894   -0.0503 H   0  0  0  0  0  0  0  0  0  0  0  0
    1.3908   -3.7057   -0.2829 H   0  0  0  0  0  0  0  0  0  0  0  0
    1.0385    1.5036   -0.6459 H   0  0  0  0  0  0  0  0  0  0  0  0
   -1.1028   -0.5932   -0.1316 H   0  0  0  0  0  0  0  0  0  0  0  0
   -0.4367    0.5409    1.0359 H   0  0  0  0  0  0  0  0  0  0  0  0
   -2.3147    1.1523   -1.3017 H   0  0  0  0  0  0  0  0  0  0  0  0
   -0.8911    3.1019    0.6076 H   0  0  0  0  0  0  0  0  0  0  0  0
   -0.6421    3.0337   -1.1288 H   0  0  0  0  0  0  0  0  0  0  0  0
   -2.2933    4.8342    1.3652 H   0  0  0  0  0  0  0  0  0  0  0  0
   -4.1168    6.4530    0.9887 H   0  0  0  0  0  0  0  0  0  0  0  0
   -5.3619    6.4566   -1.1564 H   0  0  0  0  0  0  0  0  0  0  0  0
   -4.7688    4.8336   -2.9368 H   0  0  0  0  0  0  0  0  0  0  0  0
   -2.9477    3.2062   -2.5802 H   0  0  0  0  0  0  0  0  0  0  0  0
   -3.3938    2.0983    0.9919 H   0  0  0  0  0  0  0  0  0  0  0  0
   -5.5405    1.0474    1.2979 H   0  0  0  0  0  0  0  0  0  0  0  0
   -5.2825    0.0400    3.8530 H   0  0  0  0  0  0  0  0  0  0  0  0
   -4.8103    2.3383    4.5107 H   0  0  0  0  0  0  0  0  0  0  0  0
   -6.0259    2.2842    3.2300 H   0  0  0  0  0  0  0  0  0  0  0  0
   -4.3617    2.7660    2.8536 H   0  0  0  0  0  0  0  0  0  0  0  0
   -3.1150    0.4245    4.7351 H   0  0  0  0  0  0  0  0  0  0  0  0
   -2.8265   -0.6368    3.3557 H   0  0  0  0  0  0  0  0  0  0  0  0
   -2.4842    1.0952    3.2374 H   0  0  0  0  0  0  0  0  0  0  0  0
   -7.7595   -0.3615    1.1812 H   0  0  0  0  0  0  0  0  0  0  0  0
   -6.6457   -0.2033   -0.1873 H   0  0  0  0  0  0  0  0  0  0  0  0
   -8.3135   -2.0796   -0.4890 H   0  0  0  0  0  0  0  0  0  0  0  0
   -6.6182   -2.5764   -0.5991 H   0  0  0  0  0  0  0  0  0  0  0  0
   -8.3771   -2.8079    1.9044 H   0  0  0  0  0  0  0  0  0  0  0  0
   -7.7970   -4.1474    0.8925 H   0  0  0  0  0  0  0  0  0  0  0  0
   -6.1379   -4.0142    2.5600 H   0  0  0  0  0  0  0  0  0  0  0  0
    0.8291    0.5590   -2.8509 H   0  0  0  0  0  0  0  0  0  0  0  0
  1  2  1  0
  2  3  1  0
  3  4  2  0
  4  5  1  0
  5  6  2  0
  6  7  1  0
  4  8  1  0
  3  9  1  0
  9 10  1  0
 10 11  1  0
 11 12  2  0
 11 13  1  0
 13 14  1  0
 14 15  1  0
 15 16  1  0
 16 17  2  0
 17 18  1  0
 18 19  2  0
 19 20  1  0
 20 21  2  0
 14 22  1  0
 22 23  1  0
 23 24  1  0
 24 25  1  0
 25 26  1  0
 26 27  2  0
 27 28  1  0
 28 29  2  0
 29 30  1  0
 30 31  2  0
 24 32  1  0
 32 33  1  0
 33 34  2  0
 33 35  1  0
 35 36  1  0
 36 37  1  0
 36 38  1  0
 35 39  1  0
 39 40  1  0
 40 41  1  0
 41 42  1  0
 42 43  1  0
 43 44  1  0
 44 45  2  0
 22 46  1  0
  7  2  2  0
 21 16  1  0
 31 26  1  0
 44 39  1  0
  1 47  1  0
  1 48  1  0
  1 49  1  0
  5 50  1  0
  6 51  1  0
  7 52  1  0
  8 53  1  0
  8 54  1  0
  8 55  1  0
 10 56  1  0
 10 57  1  0
 13 58  1  0
 14 59  1  6
 15 60  1  0
 15 61  1  0
 17 62  1  0
 18 63  1  0
 19 64  1  0
 20 65  1  0
 21 66  1  0
 22 67  1  1
 23 68  1  0
 23 69  1  0
 24 70  1  6
 25 71  1  0
 25 72  1  0
 27 73  1  0
 28 74  1  0
 29 75  1  0
 30 76  1  0
 31 77  1  0
 32 78  1  0
 35 79  1  6
 36 80  1  0
 37 81  1  0
 37 82  1  0
 37 83  1  0
 38 84  1  0
 38 85  1  0
 38 86  1  0
 40 87  1  0
 40 88  1  0
 41 89  1  0
 41 90  1  0
 42 91  1  0
 42 92  1  0
 43 93  1  0
 46 94  1  0
M  END
