
 OpenBabel07312608303D

 85 88  0  0  1  0  0  0  0  0999 V2000
    4.5846   -4.2372   -2.2400 C   0  0  0  0  0  0  0  0  0  0  0  0
    4.0119   -4.5106   -3.5996 C   0  0  0  0  0  0  0  0  0  0  0  0
    2.9323   -5.3849   -3.8716 C   0  0  0  0  0  0  0  0  0  0  0  0
    2.6172   -5.6259   -5.2338 C   0  0  0  0  0  0  0  0  0  0  0  0
    3.2853   -4.9965   -6.2942 C   0  0  0  0  0  0  0  0  0  0  0  0
    4.2980   -4.0932   -6.0208 C   0  0  0  0  0  0  0  0  0  0  0  0
    4.6404   -3.8610   -4.6955 C   0  0  0  0  0  0  0  0  0  0  0  0
    5.6684   -2.9777   -4.4889 O   0  0  0  0  0  0  0  0  0  0  0  0
    2.0448   -6.1720   -2.9153 C   0  0  0  0  0  0  0  0  0  0  0  0
    1.5680   -7.2371   -3.3090 O   0  0  0  0  0  0  0  0  0  0  0  0
    1.6883   -5.6689   -1.6705 N   0  0  0  0  0  0  0  0  0  0  0  0
    0.6803   -6.3642   -0.7736 C   0  0  1  0  0  0  0  0  0  0  0  0
    1.3624   -6.6652    0.5984 C   0  0  0  0  0  0  0  0  0  0  0  0
    0.3772   -7.5575    1.8729 S   0  0  0  0  0  0  0  0  0  0  0  0
    1.3976   -7.2924    3.3019 C   0  0  0  0  0  0  0  0  0  0  0  0
    1.3858   -6.0974    4.0302 C   0  0  0  0  0  0  0  0  0  0  0  0
    2.2450   -5.9364    5.1209 C   0  0  0  0  0  0  0  0  0  0  0  0
    3.1073   -6.9699    5.4897 C   0  0  0  0  0  0  0  0  0  0  0  0
    3.0885   -8.1749    4.7882 C   0  0  0  0  0  0  0  0  0  0  0  0
    2.2317   -8.3395    3.7065 C   0  0  0  0  0  0  0  0  0  0  0  0
   -0.6339   -5.5283   -0.5961 C   0  0  1  0  0  0  0  0  0  0  0  0
   -1.5000   -5.3052   -1.8654 C   0  0  0  0  0  0  0  0  0  0  0  0
   -2.7765   -4.6181   -1.5068 N   0  0  0  0  0  0  0  0  0  0  0  0
   -2.5767   -3.2645   -0.9050 C   0  0  0  0  0  0  0  0  0  0  0  0
   -2.0227   -2.1673   -1.8391 C   0  0  1  0  0  0  0  0  0  0  0  0
   -0.4906   -2.1745   -2.0269 C   0  0  0  0  0  0  0  0  0  0  0  0
    0.1029   -2.1552   -3.4361 C   0  0  0  0  0  0  0  0  0  0  0  0
   -0.8110   -1.7655   -4.5883 C   0  0  0  0  0  0  0  0  0  0  0  0
   -2.1528   -1.1980   -4.1548 C   0  0  0  0  0  0  0  0  0  0  0  0
   -2.8600   -2.0780   -3.1166 C   0  0  1  0  0  0  0  0  0  0  0  0
   -3.2603   -3.4556   -3.6726 C   0  0  0  0  0  0  0  0  0  0  0  0
   -3.7446   -4.4848   -2.6202 C   0  0  1  0  0  0  0  0  0  0  0  0
   -4.0585   -5.8333   -3.3462 C   0  0  0  0  0  0  0  0  0  0  0  0
   -3.8329   -5.9354   -4.5543 O   0  0  0  0  0  0  0  0  0  0  0  0
   -4.6420   -6.8730   -2.6463 N   0  0  0  0  0  0  0  0  0  0  0  0
   -5.0575   -8.1492   -3.3069 C   0  0  0  0  0  0  0  0  0  0  0  0
   -3.8521   -8.8737   -3.9392 C   0  0  0  0  0  0  0  0  0  0  0  0
   -5.6856   -9.1385   -2.2988 C   0  0  0  0  0  0  0  0  0  0  0  0
   -6.1339   -7.8762   -4.3786 C   0  0  0  0  0  0  0  0  0  0  0  0
   -1.5401   -6.1138    0.3528 O   0  0  0  0  0  0  0  0  0  0  0  0
    4.3900   -5.0455   -1.5339 H   0  0  0  0  0  0  0  0  0  0  0  0
    4.1952   -3.2919   -1.8532 H   0  0  0  0  0  0  0  0  0  0  0  0
    5.6785   -4.1512   -2.2993 H   0  0  0  0  0  0  0  0  0  0  0  0
    1.8328   -6.3354   -5.4909 H   0  0  0  0  0  0  0  0  0  0  0  0
    3.0105   -5.2199   -7.3214 H   0  0  0  0  0  0  0  0  0  0  0  0
    4.8225   -3.5959   -6.8300 H   0  0  0  0  0  0  0  0  0  0  0  0
    5.2572   -2.1306   -4.2461 H   0  0  0  0  0  0  0  0  0  0  0  0
    2.1256   -4.8219   -1.3367 H   0  0  0  0  0  0  0  0  0  0  0  0
    0.4107   -7.3266   -1.2263 H   0  0  0  0  0  0  0  0  0  0  0  0
    1.6992   -5.7172    1.0325 H   0  0  0  0  0  0  0  0  0  0  0  0
    2.2549   -7.2754    0.4233 H   0  0  0  0  0  0  0  0  0  0  0  0
    0.7042   -5.2927    3.7646 H   0  0  0  0  0  0  0  0  0  0  0  0
    2.2456   -5.0079    5.6846 H   0  0  0  0  0  0  0  0  0  0  0  0
    3.7888   -6.8439    6.3256 H   0  0  0  0  0  0  0  0  0  0  0  0
    3.7438   -8.9932    5.0829 H   0  0  0  0  0  0  0  0  0  0  0  0
    2.2077   -9.2857    3.1720 H   0  0  0  0  0  0  0  0  0  0  0  0
   -0.3263   -4.5737   -0.1635 H   0  0  0  0  0  0  0  0  0  0  0  0
   -1.7580   -6.2999   -2.2509 H   0  0  0  0  0  0  0  0  0  0  0  0
   -0.9482   -4.7857   -2.6499 H   0  0  0  0  0  0  0  0  0  0  0  0
   -1.9779   -3.3147    0.0111 H   0  0  0  0  0  0  0  0  0  0  0  0
   -3.5578   -2.9243   -0.5434 H   0  0  0  0  0  0  0  0  0  0  0  0
   -2.2140   -1.2240   -1.3025 H   0  0  0  0  0  0  0  0  0  0  0  0
   -0.0218   -2.9917   -1.4774 H   0  0  0  0  0  0  0  0  0  0  0  0
   -0.1038   -1.2838   -1.5099 H   0  0  0  0  0  0  0  0  0  0  0  0
    0.5351   -3.1396   -3.6561 H   0  0  0  0  0  0  0  0  0  0  0  0
    0.9663   -1.4755   -3.4297 H   0  0  0  0  0  0  0  0  0  0  0  0
   -0.9695   -2.6438   -5.2255 H   0  0  0  0  0  0  0  0  0  0  0  0
   -0.2964   -1.0415   -5.2321 H   0  0  0  0  0  0  0  0  0  0  0  0
   -2.7907   -1.0646   -5.0363 H   0  0  0  0  0  0  0  0  0  0  0  0
   -1.9916   -0.1969   -3.7334 H   0  0  0  0  0  0  0  0  0  0  0  0
   -3.7973   -1.5673   -2.8513 H   0  0  0  0  0  0  0  0  0  0  0  0
   -2.4239   -3.8936   -4.2258 H   0  0  0  0  0  0  0  0  0  0  0  0
   -4.0593   -3.3027   -4.4117 H   0  0  0  0  0  0  0  0  0  0  0  0
   -4.7130   -4.1426   -2.2154 H   0  0  0  0  0  0  0  0  0  0  0  0
   -4.7460   -6.7818   -1.6391 H   0  0  0  0  0  0  0  0  0  0  0  0
   -3.1482   -9.2079   -3.1683 H   0  0  0  0  0  0  0  0  0  0  0  0
   -3.2910   -8.2439   -4.6346 H   0  0  0  0  0  0  0  0  0  0  0  0
   -4.1751   -9.7590   -4.4997 H   0  0  0  0  0  0  0  0  0  0  0  0
   -4.9559   -9.4844   -1.5591 H   0  0  0  0  0  0  0  0  0  0  0  0
   -6.0609  -10.0304   -2.8195 H   0  0  0  0  0  0  0  0  0  0  0  0
   -6.5295   -8.6954   -1.7616 H   0  0  0  0  0  0  0  0  0  0  0  0
   -5.7801   -7.2147   -5.1746 H   0  0  0  0  0  0  0  0  0  0  0  0
   -7.0187   -7.4071   -3.9325 H   0  0  0  0  0  0  0  0  0  0  0  0
   -6.4592   -8.8058   -4.8605 H   0  0  0  0  0  0  0  0  0  0  0  0
   -2.4318   -5.7992    0.1018 H   0  0  0  0  0  0  0  0  0  0  0  0
  1  2  1  0  0  0  0
  1 41  1  0  0  0  0
  1 42  1  0  0  0  0
  1 43  1  0  0  0  0
  2  3  2  0  0  0  0
  2  7  1  0  0  0  0
  3  4  1  0  0  0  0
  3  9  1  0  0  0  0
  4  5  2  0  0  0  0
  4 44  1  0  0  0  0
  5  6  1  0  0  0  0
  5 45  1  0  0  0  0
  6  7  2  0  0  0  0
  6 46  1  0  0  0  0
  7  8  1  0  0  0  0
  8 47  1  0  0  0  0
  9 10  2  0  0  0  0
  9 11  1  0  0  0  0
 11 12  1  0  0  0  0
 11 48  1  0  0  0  0
 12 13  1  0  0  0  0
 12 21  1  0  0  0  0
 12 49  1  6  0  0  0
 13 14  1  0  0  0  0
 13 50  1  0  0  0  0
 13 51  1  0  0  0  0
 14 15  1  0  0  0  0
 15 16  2  0  0  0  0
 15 20  1  0  0  0  0
 16 17  1  0  0  0  0
 16 52  1  0  0  0  0
 17 18  2  0  0  0  0
 17 53  1  0  0  0  0
 18 19  1  0  0  0  0
 18 54  1  0  0  0  0
 19 20  2  0  0  0  0
 19 55  1  0  0  0  0
 20 56  1  0  0  0  0
 21 22  1  0  0  0  0
 21 40  1  0  0  0  0
 21 57  1  1  0  0  0
 22 23  1  0  0  0  0
 22 58  1  0  0  0  0
 22 59  1  0  0  0  0
 23 24  1  0  0  0  0
 23 32  1  0  0  0  0
 24 25  1  0  0  0  0
 24 60  1  0  0  0  0
 24 61  1  0  0  0  0
 25 26  1  0  0  0  0
 25 30  1  0  0  0  0
 25 62  1  1  0  0  0
 26 27  1  0  0  0  0
 26 63  1  0  0  0  0
 26 64  1  0  0  0  0
 27 28  1  0  0  0  0
 27 65  1  0  0  0  0
 27 66  1  0  0  0  0
 28 29  1  0  0  0  0
 28 67  1  0  0  0  0
 28 68  1  0  0  0  0
 29 30  1  0  0  0  0
 29 69  1  0  0  0  0
 29 70  1  0  0  0  0
 30 31  1  0  0  0  0
 30 71  1  1  0  0  0
 31 32  1  0  0  0  0
 31 72  1  0  0  0  0
 31 73  1  0  0  0  0
 32 33  1  0  0  0  0
 32 74  1  1  0  0  0
 33 34  2  0  0  0  0
 33 35  1  0  0  0  0
 35 36  1  0  0  0  0
 35 75  1  0  0  0  0
 36 37  1  0  0  0  0
 36 38  1  0  0  0  0
 36 39  1  0  0  0  0
 37 76  1  0  0  0  0
 37 77  1  0  0  0  0
 37 78  1  0  0  0  0
 38 79  1  0  0  0  0
 38 80  1  0  0  0  0
 38 81  1  0  0  0  0
 39 82  1  0  0  0  0
 39 83  1  0  0  0  0
 39 84  1  0  0  0  0
 40 85  1  0  0  0  0
M  END
$$$$
